Circuit: * C:\Users\LENOVO\Desktop\EE464-PeakyConverters\spice simulations\Analog_Controller.asc

Direct Newton iteration failed to find .op point.  (Use ".option noopiter" to skip.)
Starting Gmin stepping
Gmin = 10
Gmin = 1.07374
vernier = 0.5
Gmin = 0.274568
vernier = 0.666667
vernier = 0.888888
vernier = 0.444444
Gmin = 0.0791893
vernier = 0.222222
vernier = 0.111111
vernier = 0.0555555
vernier = 0.0277778
vernier = 0.0138889
vernier = 0.00694444
vernier = 0.00347222
vernier = 0.00173611
vernier = 0.000868055
vernier = 0.000434028
Gmin = 0.0791893
Gmin = 0
Gmin stepping failed

Starting source stepping with srcstepmethod=0
Source Step = 3.0303%
Source Step = 33.3333%
Source Step = 39.4028%
Source Step = 39.4324%
Source Step = 39.462%
Source Step = 39.4916%
Source Step = 39.5212%
Source Step = 39.5508%
vernier = 0.00146484
Source Step = 39.5907%
Source Step = 39.6351%
Source Step = 39.6795%
Source Step = 39.7239%
Source Step = 39.7683%
vernier = 0.00219727
Source Step = 39.826%
Source Step = 39.8926%
Source Step = 39.9592%
Source Step = 40.0257%
Source Step = 40.0923%
vernier = 0.0032959
Source Step = 40.1756%
Source Step = 40.2754%
Source Step = 40.3753%
Source Step = 40.4752%
Source Step = 40.5751%
vernier = 0.00494385
Source Step = 40.6949%
Source Step = 40.8447%
Source Step = 40.9945%
Source Step = 41.1444%
Source Step = 41.2942%
vernier = 0.00741577
Source Step = 41.4665%
Source Step = 41.6912%
Source Step = 41.9159%
Source Step = 42.1406%
Source Step = 42.3653%
vernier = 0.0111237
Source Step = 42.6125%
Source Step = 42.9496%
Source Step = 43.2867%
Source Step = 43.6238%
Source Step = 43.9608%
vernier = 0.0166855
Source Step = 44.3148%
Source Step = 44.8204%
Source Step = 45.326%
Source Step = 45.8316%
Source Step = 46.3373%
Source Step = 46.8429%
vernier = 0.0250282
Source Step = 47.6013%
Source Step = 48.3597%
Source Step = 49.1182%
Source Step = 49.8766%
Source Step = 50.635%
vernier = 0.0375423
Source Step = 51.7348%
Source Step = 52.8724%
Source Step = 54.0101%
Source Step = 55.1477%
Source Step = 56.2854%
vernier = 0.0563135
Source Step = 57.8781%
Source Step = 59.5845%
Source Step = 61.291%
Source Step = 62.9975%
Source Step = 64.7039%
vernier = 0.0844703
Source Step = 67.0077%
Source Step = 69.5674%
Source Step = 72.1271%
Source Step = 74.6868%
Source Step = 77.2465%
vernier = 0.126705
Source Step = 80.5741%
Source Step = 84.4137%
Source Step = 88.2532%
Source Step = 92.0928%
vernier = 0.0316764
Source Step = 91.7568%
Source Step = 91.8168%
Source Step = 91.8768%
Source Step = 91.9368%
Source Step = 91.9968%
Source Step = 92.0568%
Source Step = 92.1168%
Source Step = 92.1768%
Source Step = 92.2368%
Source Step = 92.2968%
Source Step = 92.3568%
Source Step = 92.4167%
Source Step = 92.4767%
vernier = 0.00296966
Source Step = 92.5547%
Source Step = 92.6447%
Source Step = 92.7347%
Source Step = 92.8247%
Source Step = 92.9147%
vernier = 0.00445449
Source Step = 93.0272%
Source Step = 93.1622%
Source Step = 93.2971%
Source Step = 93.4321%
Source Step = 93.5671%
vernier = 0.00668173
Source Step = 93.7291%
Source Step = 93.9316%
Source Step = 94.1341%
Source Step = 94.3365%
Source Step = 94.539%
vernier = 0.0100226
Source Step = 94.7719%
Source Step = 95.0756%
Source Step = 95.3793%
Source Step = 95.683%
Source Step = 95.9867%
vernier = 0.0150339
Source Step = 96.3208%
Source Step = 96.7764%
Source Step = 97.2319%
Source Step = 97.6875%
Source Step = 98.1431%
vernier = 0.0225508
Source Step = 98.6214%
Source Step = 99.3048%
Source Step = 99.9882%
Source stepping succeeded in finding the operating point.

Changing Tseed to 1e-008
Changing Tseed to 1e-010
Heightened Def Con from 3.18136e-005 to 3.18139e-005
Heightened Def Con from 0.0002627 to 0.000262703
Heightened Def Con from 0.000548437 to 0.000548437
Heightened Def Con from 0.00156654 to 0.00156654

Date: Thu Jun 06 14:27:43 2024
Total elapsed time: 24.710 seconds.

tnom = 27
temp = 27
method = modified trap
totiter = 3958355
traniter = 3945933
tranpoints = 996626
accept = 665198
rejected = 331430
matrix size = 45
fillins = 42
solver = Normal
Matrix Compiler1: 3.96 KB object code size  0.8/0.4/[0.3]
Matrix Compiler2: 4.11 KB object code size  0.4/0.6/[0.3]

