Circuit: * C:\Users\LENOVO\Desktop\EE464-PeakyConverters\spice simulations\peaky_forward_uc8345_withRCsnubber.asc

C9: Increased Cpar to 4.7e-010
Direct Newton iteration for .op point succeeded.
Heightened Def Con from 0.000101931 to 0.000101934
Heightened Def Con from 0.000170564 to 0.000170567
Heightened Def Con from 0.000304595 to 0.000304598
Heightened Def Con from 0.00108157 to 0.00108157
Heightened Def Con from 0.00111996 to 0.00111996
Heightened Def Con from 0.001133 to 0.001133
Heightened Def Con from 0.00204953 to 0.00204954
Heightened Def Con from 0.00434991 to 0.00434991
Heightened Def Con from 0.006104 to 0.006104

Date: Fri Jun 14 03:03:11 2024
Total elapsed time: 34.968 seconds.

tnom = 27
temp = 27
method = modified trap
totiter = 3118444
traniter = 3118419
tranpoints = 925558
accept = 648424
rejected = 277143
matrix size = 69
fillins = 48
solver = Normal
Thread vector: 16.8/5.5[2] 2.9/2.8[1] 1.2/1.3[1] 0.3/1.4[1]  2592/500
Matrix Compiler1: 5.99 KB object code size  1.2/0.7/[0.4]
Matrix Compiler2: 5.87 KB object code size  0.5/0.8/[0.4]

