Circuit: * C:\Users\LENOVO\Desktop\EE464-PeakyConverters\spice simulations\two sw.asc

Direct Newton iteration for .op point succeeded.

Date: Wed Apr 24 23:40:38 2024
Total elapsed time: 6.484 seconds.

tnom = 27
temp = 27
method = modified trap
totiter = 1563405
traniter = 1563398
tranpoints = 448772
accept = 323527
rejected = 125245
matrix size = 25
fillins = 23
solver = Normal
Matrix Compiler1: 2.35 KB object code size  0.4/0.3/[0.2]
Matrix Compiler2: 2.28 KB object code size  0.2/0.3/[0.2]

