Circuit: * C:\Users\LENOVO\Desktop\EE464-PeakyConverters\spice simulations\two sw.asc

Direct Newton iteration for .op point succeeded.

Date: Tue Jun 04 17:31:21 2024
Total elapsed time: 5.697 seconds.

tnom = 27
temp = 27
method = modified trap
totiter = 1561959
traniter = 1561952
tranpoints = 448213
accept = 322973
rejected = 125240
matrix size = 25
fillins = 23
solver = Normal
Matrix Compiler1: 2.35 KB object code size  1.4/0.3/[0.1]
Matrix Compiler2: 2.28 KB object code size  0.9/0.3/[0.2]

